*Heading
*****************************************************************
**
** UNITS: Length - millimeter,
**        Time - sec, 
**        Force - Newton,
**        Stress - 1e6 Pa = MPa, 
**        Mass - 1e3 kg,
**        Energy - 1e-3 Joule,
**
*****************************************************************
**
** Single-edge-notched specimen with initial crack length a=0.5mm
**
** Material properties for PDMS  (Figure 2 and 3) -->  use *Solid Section, elset=allele, material=PDMS
**                     for TangoPlus (Figure 4 and 5) -->  use *Solid Section, elset=allele, material=TP
**
*****************************************************************
*Node
1,2.440158,1.000000
2,2.379829,1.000000
3,2.319009,1.000000
4,2.257694,1.000000
5,2.195879,1.000000
6,2.133561,1.000000
7,2.070736,1.000000
8,2.007400,1.000000
9,1.943548,1.000000
10,1.879176,1.000000
11,1.814279,1.000000
12,1.748855,1.000000
13,1.682898,1.000000
14,1.616404,1.000000
15,1.549368,1.000000
16,1.481787,1.000000
17,1.413656,1.000000
18,1.344970,1.000000
19,1.275724,1.000000
20,1.205915,1.000000
** ... 11050 like lines cut
**
*User Element,Type=U1,Nodes=4,Coordinates=2,Properties=7,Iproperties=2,Variables=80,Unsymm
1,2,11
**
*Element, type=U1
       1,    1022,      73,    1043,      72
       2,      73,      74,    1044,    1043
       3,      74,      75,    1045,    1044
       4,      75,      76,    1046,    1045
       5,      76,      77,    1047,    1046
       6,      77,      78,    1048,    1047
       7,      78,      79,    1049,    1048
       8,      79,      80,    1050,    1049
       9,      80,      81,    1051,    1050
      10,      81,      82,    1052,    1051
      11,      82,      83,    1053,    1052
      12,      83,    1023,    1054,    1053
      13,    1023,      84,    1055,    1054
      14,      84,      85,    1056,    1055
      15,      72,    1043,    1057,      71
      16,    1043,    1044,    1058,    1057
      17,    1044,    1045,    1059,    1058
      18,    1045,    1046,    1060,    1059
      19,    1046,    1047,    1061,    1060
      20,    1047,    1048,    1062,    1061
** ... 10962 like lines cut
*Element, type=CPS4
100001,1022,73,1043,72
100002,73,74,1044,1043
100003,74,75,1045,1044
100004,75,76,1046,1045
100005,76,77,1047,1046
100006,77,78,1048,1047
100007,78,79,1049,1048
100008,79,80,1050,1049
100009,80,81,1051,1050
100010,81,82,1052,1051
100011,82,83,1053,1052
100012,83,1023,1054,1053
100013,1023,84,1055,1054
100014,84,85,1056,1055
100015,72,1043,1057,71
100016,1043,1044,1058,1057
100017,1044,1045,1059,1058
100018,1045,1046,1060,1059
100019,1046,1047,1061,1060
100020,1047,1048,1062,1061
** ... 10962 like lines cut
*Nset, nset=allele, generate
1, 11070, 1
*Elset, elset=allele, generate
1, 10982, 1
*Solid Section, elset=allele, material=PDMS
**Solid Section, elset=allele, material=TP
,
*Elset, elset=elDummy, generate
100001, 110982, 1
*Solid section, elset=ElDummy, material=DummyMaterial
,
*Nset, nset=top, unsorted
     558,     559,     560,     561,     562,     563,
     564,     565,     566,    1030,    1031,
*Nset, nset=bottom, unsorted
    1011,    1012,    1013,    1014,    1015,    1016,
    1017,    1018,    1019,    1041,    1042,
*Nset, nset=xfixed    
    1042,    
**
*****************************************************************
**
** MATERIALS
**
*****************************************************************
**
*Material, name=PDMS
*uel property,elset=allele
** Gshear0,ENK,Eb_bar,Kbulk,erff,lc,zeta
** nlSdv, ngSdv
0.38e0, 1.8e0, 30e0, 38e0, 1.4e0, 0.08e0, 1e-3, 4,
4
**
*Material, name=TP
*uel property,elset=allele
** Gshear0,ENK,Eb_bar,Kbulk,erff,lc,zeta
** nlSdv, ngSdv
0.24e0, 10e0, 10e0, 24e0, 0.18e0, 1.0e0, 5e-1, 4,
4
**
*Material, name=DummyMaterial
*Elastic
1.e-20
*User output variables
4
*Density
1.0
*Specific heat
1.0
**
*****************************************************************
**
** INITIAL CONDITIONS
**
*****************************************************************
*Initial conditions, type=temperature
allele,0.0
**
*****************************************************************
** STEP: Step-1
** 
*Step, name=Step-1, nlgeom=YES, inc=500000, unsymm=yes
*Coupled temperature-displacement, stabilize, ALLSDTOL=0, deltmx=2e-2
1e0, 30, 1e-8, 1e0
*CONTROLS, PARAMETERS=TIME INCREMENTATION
10,,,,,10,,20
*SOLUTION TECHNIQUE, TYPE = SEPARATED
*Boundary
bottom, 2
xfixed, 1
*Boundary, amplitude=const_rate1
top, 2, 2
*amplitude,name=const_rate1,value=absolute,definition=tabular
0,0,30,3,
**Restart, write, frequency=1, overlay
*Output, field, time interval=1, time marks=no
*node output, nset=allele
u,nt,RF
*Element output, elset=ElDummy
le,uvarm
*Output, history, variable=PRESELECT
*End Step
*****************************************************************
** STEP: Step-2
** 
*Step, name=Step-2, nlgeom=YES, inc=500000, unsymm=yes
*Coupled temperature-displacement, stabilize, ALLSDTOL=0, deltmx=2e-2
1e-2, 120, 1e-8, 1e-2
*CONTROLS, PARAMETERS=TIME INCREMENTATION
10,,,,,10,,20
*SOLUTION TECHNIQUE, TYPE = SEPARATED
*Boundary
bottom, 2
xfixed, 1
*Boundary, amplitude=const_rate2
top, 2, 2
*amplitude,name=const_rate2,value=absolute,definition=tabular
0,3,60,9,120,15,
**Restart, write, frequency=1, overlay
*Output, field, frequency=100, time marks=no
*node output, nset=allele
u,nt,RF
*Element output, elset=ElDummy
le,uvarm
*Output, history, variable=PRESELECT
*End Step