*Heading
*****************************************************************
**
**	UNITS:	Length - millimeter (mm),
**          Time - sec, 
**          Force - Newton,
**          Stress - 1e6 Pa = MPa, 
**          Mass - 1e3 kg,
**          Energy - 1e-3 Joule,
**
*****************************************************************
*Node
1,0.000000,9.750000
2,0.000000,9.500000
3,0.000000,9.250000
4,0.000000,9.000000
5,0.000000,8.750000
6,0.000000,8.500000
7,0.000000,8.250000
8,-0.238095,10.000000
9,-0.476191,10.000000
10,-0.714286,10.000000
11,-0.952381,10.000000
12,-1.190476,10.000000
13,-1.428571,10.000000
14,-1.666667,10.000000
15,-1.904762,10.000000
16,-2.142857,10.000000
17,-2.380952,10.000000
18,-2.619048,10.000000
19,-2.857143,10.000000
20,-3.095238,10.000000
** ... 17120 like lines cut
**
*User Element,Type=U1,Nodes=4,Coordinates=2,Properties=7,Iproperties=2,Variables=80,Unsymm
1,2,11
**
*Element, type=U1
       1,    1378,       7,    1416,      56
       2,       7,       6,    1417,    1416
       3,       6,       5,    1418,    1417
       4,       5,       4,    1419,    1418
       5,       4,       3,    1420,    1419
       6,       3,       2,    1421,    1420
       7,       2,       1,    1422,    1421
       8,       1,    1377,       8,    1422
       9,      56,    1416,    1423,      57
      10,    1416,    1417,    1424,    1423
      11,    1417,    1418,    1425,    1424
      12,    1418,    1419,    1426,    1425
      13,    1419,    1420,    1427,    1426
      14,    1420,    1421,    1428,    1427
      15,    1421,    1422,    1429,    1428
      16,    1422,       8,       9,    1429
      17,      57,    1423,    1430,      58
      18,    1423,    1424,    1431,    1430
      19,    1424,    1425,    1432,    1431
      20,    1425,    1426,    1433,    1432
** ... 16595 like lines cut
*Element, type=CPS4
100001,1378,7,1416,56
100002,7,6,1417,1416
100003,6,5,1418,1417
100004,5,4,1419,1418
100005,4,3,1420,1419
100006,3,2,1421,1420
100007,2,1,1422,1421
100008,1,1377,8,1422
100009,56,1416,1423,57
100010,1416,1417,1424,1423
100011,1417,1418,1425,1424
100012,1418,1419,1426,1425
100013,1419,1420,1427,1426
100014,1420,1421,1428,1427
100015,1421,1422,1429,1428
100016,1422,8,9,1429
100017,57,1423,1430,58
100018,1423,1424,1431,1430
100019,1424,1425,1432,1431
100020,1425,1426,1433,1432
** ... 16595 like lines cut
*Nset, nset=allele, generate
1, 17140, 1
*Elset, elset=allele, generate
1, 16615, 1
*Solid Section, elset=allele, material=TP
,
*Elset, elset=elDummy, generate
100001, 116615, 1
*Solid section, elset=ElDummy, material=DummyMaterial
,
*Nset, nset=top, unsorted
       8,       9,      10,      11,      12,      13,
      14,      15,      16,      17,      18,      19,
      20,      21,      22,      23,      24,      25,
      26,      27,      28,      29,      30,      31,
      32,      33,      34,      35,      36,      37,
      38,      39,      40,      41,      42,      43,
      44,      45,      46,      47,      48,     104,
     105,     106,     107,     108,     109,     110,
     111,     112,     113,     114,     115,     116,
     117,     118,     119,     120,     121,     122,
     123,     124,     125,     126,     127,     128,
     129,     130,     131,     132,     133,     134,
     135,     136,     137,     138,     139,     140,
     141,     142,     143,     144,    1377,    1379,
    1382,
*Nset, nset=bottom, unsorted
    1288,    1289,    1290,    1291,    1292,    1293,
    1294,    1295,    1296,    1297,    1298,    1299,
    1300,    1301,    1302,    1303,    1304,    1305,
    1306,    1307,    1308,    1309,    1310,    1311,
    1312,    1313,    1314,    1315,    1316,    1317,
    1318,    1319,    1320,    1321,    1322,    1323,
    1324,    1325,    1326,    1327,    1328,    1336,
    1337,    1338,    1339,    1340,    1341,    1342,
    1343,    1344,    1345,    1346,    1347,    1348,
    1349,    1350,    1351,    1352,    1353,    1354,
    1355,    1356,    1357,    1358,    1359,    1360,
    1361,    1362,    1363,    1364,    1365,    1366,
    1367,    1368,    1369,    1370,    1371,    1372,
    1373,    1374,    1375,    1376,    1413,    1414,
    1415,
*Nset, nset=xfixed    
    1413,    
**
*****************************************************************
**
** MATERIALS
**
*****************************************************************
*Material, name=TP
*uel property,elset=allele
** Gshear0,ENK,Eb_bar,Kbulk,erff,lc,zeta
** nlSdv, ngSdv
0.24e0, 10e0, 10e0, 24e0, 0.18e0, 1.0e0, 5e-1, 4,
4
*Solid section, elset=ElDummy, material=DummyMaterial
*Material, name=DummyMaterial
*Elastic
1.e-20
*User output variables
4
*Density
1.0
*Specific heat
1.0
*Equation
2
top,1,1
bottom,1,-1
**
*****************************************************************
**
** INITIAL CONDITIONS
**
*****************************************************************
*Initial conditions, type=temperature
allele,0.0
**
*****************************************************************
** STEP: Step-1
** 
*Step, name=Step-1, nlgeom=YES, inc=500000, unsymm=yes
*Coupled temperature-displacement, stabilize, ALLSDTOL=0, deltmx=2e-2
1e-2, 80, 1e-8, 1e-2
*CONTROLS, PARAMETERS=TIME INCREMENTATION
10,,,,,10,,20
*SOLUTION TECHNIQUE, TYPE = SEPARATED
*Boundary
top, 1
bottom, 1
bottom, 2
*Boundary, amplitude=const_rate1
top, 2, 2
*amplitude,name=const_rate1,value=absolute,definition=tabular
0,0,20,4,40,8,60,12
80,16,
**Restart, write, frequency=1, overlay
*Output, field, frequency=20, time marks=no
*node output, nset=allele
u,nt,RF
*Element output, elset=ElDummy
le,uvarm
*Output, history, variable=PRESELECT
*End Step